# Packages
 &PACKAGES
 useOBCS=.TRUE.,
 useMNC=.FALSE.,
 useDiagnostics=.TRUE.,
 &
